example/ACTIVSg500/case.raw
0, 100, 33, 0, 0, 60  / 24-Jan-2025 14:16:47 - MATPOWER 8.0b1


     1, 'WINNSBORO 0 ',       138, 1,    1,    2, 1,   1.0121594,  -10.768348,  1.1,  0.9,  1.1,  0.9
     2, 'WINNSBORO 1 ',       138, 1,    1,    2, 1,   1.0115797,  -10.840156,  1.1,  0.9,  1.1,  0.9
     3, 'COLUMBIA 11 ',       138, 1,    1,    2, 1,   1.0062303,  -12.071857,  1.1,  0.9,  1.1,  0.9
     4, 'COLUMBIA 11 ',       138, 1,    1,    2, 1,   1.0040662,  -12.322717,  1.1,  0.9,  1.1,  0.9
     5, 'SMYRNA 0    ',       138, 1,    1,    1, 1,   1.0146988,   -1.264301,  1.1,  0.9,  1.1,  0.9
     6, 'SMYRNA 1    ',       138, 1,    1,    1, 1,   1.0146511,   -1.270407,  1.1,  0.9,  1.1,  0.9
     7, 'EASTOVER 2 0',       345, 1,    1,    2, 1,   1.0338633,    -6.93107,  1.1,  0.9,  1.1,  0.9
     8, 'EASTOVER 2 1',       138, 1,    1,    2, 1,   1.0269631,   -8.712158,  1.1,  0.9,  1.1,  0.9
     9, 'EASTOVER 2 2',      13.8, 2,    1,    2, 1,        1.04,   -4.132565,  1.1,  0.9,  1.1,  0.9
    10, 'CHAPPELLS 2 ',       138, 1,    1,    2, 1,   1.0167054,  -13.818521,  1.1,  0.9,  1.1,  0.9
    11, 'CHAPPELLS 2 ',       138, 1,    1,    2, 1,   1.0166687,  -13.822668,  1.1,  0.9,  1.1,  0.9
    12, 'PELZER 0    ',       138, 1,    1,    1, 1,   0.9918009,  -14.544799,  1.1,  0.9,  1.1,  0.9
    13, 'PELZER 1    ',       138, 1,    1,    1, 1,   0.9912534,  -14.609077,  1.1,  0.9,  1.1,  0.9
    14, 'SENECA 3 0  ',       345, 1,    1,    1, 1,   1.0300871,   -3.407512,  1.1,  0.9,  1.1,  0.9
    15, 'SENECA 3 1  ',       138, 1,    1,    1, 1,   1.0213804,   -6.028249,  1.1,  0.9,  1.1,  0.9
    16, 'SENECA 3 2  ',      13.8, 2,    1,    1, 1,        1.04,   -0.563895,  1.1,  0.9,  1.1,  0.9
    17, 'SENECA 3 3  ',      13.8, 3,    1,    1, 1,        1.04,           0,  1.1,  0.9,  1.1,  0.9
    18, 'SENECA 3 4  ',      13.8, 2,    1,    1, 1,        1.04,    0.891476,  1.1,  0.9,  1.1,  0.9
    19, 'MONETTA 0   ',       138, 1,    1,    2, 1,   1.0183477,   -14.29614,  1.1,  0.9,  1.1,  0.9
    20, 'MONETTA 1   ',       138, 1,    1,    2, 1,   1.0182774,  -14.305529,  1.1,  0.9,  1.1,  0.9
    21, 'LEXINGTON 2 ',       138, 1,    1,    2, 1,     1.00952,   -12.34143,  1.1,  0.9,  1.1,  0.9
    22, 'LEXINGTON 2 ',       138, 1,    1,    2, 1,   1.0073941,  -12.594211,  1.1,  0.9,  1.1,  0.9
    23, 'WELLFORD 0  ',       345, 1,    1,    1, 1,    1.027297,   -7.930431,  1.1,  0.9,  1.1,  0.9
    24, 'WELLFORD 1  ',       138, 1,    1,    1, 1,   1.0123427,  -10.816709,  1.1,  0.9,  1.1,  0.9
    25, 'WELLFORD 2  ',       138, 1,    1,    1, 1,   1.0123071,  -10.821133,  1.1,  0.9,  1.1,  0.9
    26, 'WELLFORD 3  ',       138, 1,    1,    1, 1,   1.0120091,  -10.860073,  1.1,  0.9,  1.1,  0.9
    27, 'LAURENS 0   ',       138, 1,    1,    1, 1,   1.0131877,  -16.550327,  1.1,  0.9,  1.1,  0.9
    28, 'LAURENS 1   ',       138, 1,    1,    1, 1,   1.0121009,  -16.683236,  1.1,  0.9,  1.1,  0.9
    29, 'COLUMBIA 10 ',       138, 1,    1,    2, 1,   1.0094314,  -14.585453,  1.1,  0.9,  1.1,  0.9
    30, 'COLUMBIA 10 ',       138, 1,    1,    2, 1,   1.0079428,  -14.761896,  1.1,  0.9,  1.1,  0.9
    31, 'WINDSOR 0   ',       138, 1,    1,    2, 1,   1.0324536,  -17.056434,  1.1,  0.9,  1.1,  0.9
    32, 'WINDSOR 1   ',       138, 1,    1,    2, 1,   1.0323079,   -17.07356,  1.1,  0.9,  1.1,  0.9
    33, 'PROSPERITY 0',       138, 1,    1,    2, 1,   1.0062025,  -15.223413,  1.1,  0.9,  1.1,  0.9
    34, 'PROSPERITY 1',       138, 1,    1,    2, 1,   1.0058294,  -15.267528,  1.1,  0.9,  1.1,  0.9
    35, 'NORTH AUGUST',       138, 1,    1,    2, 1,   1.0176565,  -15.888312,  1.1,  0.9,  1.1,  0.9
    36, 'NORTH AUGUST',       138, 1,    1,    2, 1,   1.0170629,  -15.957294,  1.1,  0.9,  1.1,  0.9
    37, 'LANDO 0     ',       138, 1,    1,    1, 1,    1.019326,   -0.912831,  1.1,  0.9,  1.1,  0.9
    38, 'LANDO 1     ',       138, 1,    1,    1, 1,    1.019324,   -0.913092,  1.1,  0.9,  1.1,  0.9
    39, 'GAFFNEY 3 0 ',       345, 1,    1,    1, 1,    1.029536,   -7.806151,  1.1,  0.9,  1.1,  0.9
    40, 'GAFFNEY 3 1 ',       138, 1,    1,    1, 1,   1.0230801,   -9.013592,  1.1,  0.9,  1.1,  0.9
    41, 'GAFFNEY 3 2 ',       138, 1,    1,    1, 1,   1.0221263,    -9.13288,  1.1,  0.9,  1.1,  0.9
    42, 'CLARKS HILL ',       138, 1,    1,    2, 1,   1.0241182,  -13.629013,  1.1,  0.9,  1.1,  0.9
    43, 'CLARKS HILL ',       138, 1,    1,    2, 1,   1.0240584,  -13.636262,  1.1,  0.9,  1.1,  0.9
    44, 'JENKINSVILLE',       138, 1,    1,    2, 1,   1.0183376,   -9.780178,  1.1,  0.9,  1.1,  0.9
    45, 'JENKINSVILLE',       138, 1,    1,    2, 1,   1.0183043,   -9.784337,  1.1,  0.9,  1.1,  0.9
    46, 'WOODRUFF 0  ',       138, 1,    1,    1, 1,   1.0041544,  -13.176609,  1.1,  0.9,  1.1,  0.9
    47, 'WOODRUFF 1  ',       138, 1,    1,    1, 1,   1.0034945,  -13.257904,  1.1,  0.9,  1.1,  0.9
    48, 'IVA 0       ',       138, 1,    1,    1, 1,   1.0009431,   -17.76377,  1.1,  0.9,  1.1,  0.9
    49, 'IVA 1       ',      13.8, 2,    1,    1, 1,    1.002792,  -17.561683,  1.1,  0.9,  1.1,  0.9
    50, 'IVA 2       ',      13.8, 2,    1,    1, 1,   1.0030954,   -17.52604,  1.1,  0.9,  1.1,  0.9
    51, 'IVA 3       ',       138, 1,    1,    1, 1,   1.0009373,  -17.764478,  1.1,  0.9,  1.1,  0.9
    52, 'IVA 4       ',       138, 1,    1,    1, 1,   1.0005895,  -17.806277,  1.1,  0.9,  1.1,  0.9
    53, 'CAYCE 0     ',       138, 1,    1,    2, 1,   1.0165292,  -13.251455,  1.1,  0.9,  1.1,  0.9
    54, 'CAYCE 1     ',       138, 1,    1,    2, 1,   1.0160159,  -13.307067,  1.1,  0.9,  1.1,  0.9
    55, 'TROY 0      ',       138, 1,    1,    1, 1,   1.0191294,  -13.193049,  1.1,  0.9,  1.1,  0.9
    56, 'TROY 1      ',       138, 1,    1,    1, 1,   1.0190957,   -13.19695,  1.1,  0.9,  1.1,  0.9
    57, 'SIMPSONVILLE',       345, 1,    1,    1, 1,   1.0102301,   -9.631096,  1.1,  0.9,  1.1,  0.9
    58, 'SIMPSONVILLE',       138, 1,    1,    1, 1,   1.0019704,   -12.45089,  1.1,  0.9,  1.1,  0.9
    59, 'SIMPSONVILLE',       138, 1,    1,    1, 1,   0.9996353,  -12.747819,  1.1,  0.9,  1.1,  0.9
    60, 'MAYO 0      ',       138, 1,    1,    1, 1,   1.0195458,   -9.574278,  1.1,  0.9,  1.1,  0.9
    61, 'MAYO 1      ',       138, 1,    1,    1, 1,   1.0195429,   -9.574657,  1.1,  0.9,  1.1,  0.9
    62, 'BELTON 2 0  ',       138, 1,    1,    1, 1,   1.0098039,  -11.911949,  1.1,  0.9,  1.1,  0.9
    63, 'BELTON 2 1  ',      13.8, 2,    1,    1, 1,   1.0098039,  -11.911949,  1.1,  0.9,  1.1,  0.9
    64, 'BELTON 2 2  ',       138, 1,    1,    1, 1,   1.0092747,  -11.972508,  1.1,  0.9,  1.1,  0.9
    65, 'BRADLEY 0   ',       345, 1,    1,    1, 1,   1.0253984,  -10.657074,  1.1,  0.9,  1.1,  0.9
    66, 'BRADLEY 1   ',       138, 1,    1,    1, 1,   1.0213047,  -12.355135,  1.1,  0.9,  1.1,  0.9
    67, 'BRADLEY 2   ',       138, 1,    1,    1, 1,    1.021235,  -12.363122,  1.1,  0.9,  1.1,  0.9
    68, 'ENOREE 0    ',       138, 1,    1,    1, 1,   1.0095454,   -13.55949,  1.1,  0.9,  1.1,  0.9
    69, 'ENOREE 1    ',       138, 1,    1,    1, 1,   1.0092536,  -13.595925,  1.1,  0.9,  1.1,  0.9
    70, 'HONEA PATH 2',       138, 1,    1,    1, 1,   0.9952003,  -14.853739,  1.1,  0.9,  1.1,  0.9
    71, 'HONEA PATH 2',      13.8, 2,    1,    1, 1,   0.9959298,  -14.751248,  1.1,  0.9,  1.1,  0.9
    72, 'HONEA PATH 2',      13.8, 2,    1,    1, 1,   0.9963709,  -14.687687,  1.1,  0.9,  1.1,  0.9
    73, 'HONEA PATH 2',      13.8, 2,    1,    1, 1,    0.996844,  -14.636919,  1.1,  0.9,  1.1,  0.9
    74, 'SPRINGFIELD ',       138, 1,    1,    2, 1,   1.0250334,  -16.893698,  1.1,  0.9,  1.1,  0.9
    75, 'SPRINGFIELD ',       138, 1,    1,    2, 1,   1.0249571,    -16.9029,  1.1,  0.9,  1.1,  0.9
    76, 'EDGEMOOR 0  ',       138, 1,    1,    1, 1,    1.017795,   -0.028885,  1.1,  0.9,  1.1,  0.9
    77, 'EDGEMOOR 1  ',       138, 1,    1,    1, 1,   1.0176872,    -0.04091,  1.1,  0.9,  1.1,  0.9
    78, 'NEWRY 0     ',       138, 1,    1,    1, 1,   1.0126457,   -8.449181,  1.1,  0.9,  1.1,  0.9
    79, 'NEWRY 1     ',       138, 1,    1,    1, 1,   1.0126401,   -8.449844,  1.1,  0.9,  1.1,  0.9
    80, 'CLARKS HILL ',       345, 1,    1,    2, 1,   1.0318766,   -10.20359,  1.1,  0.9,  1.1,  0.9
    81, 'CLARKS HILL ',       138, 1,    1,    2, 1,   1.0261976,  -12.787872,  1.1,  0.9,  1.1,  0.9
    82, 'CLARKS HILL ',      13.8, 2,    1,    2, 1,        1.04,   -4.187069,  1.1,  0.9,  1.1,  0.9
    83, 'NEWBERRY 0  ',       138, 1,    1,    2, 1,   1.0042842,  -15.618602,  1.1,  0.9,  1.1,  0.9
    84, 'NEWBERRY 1  ',       138, 1,    1,    2, 1,   1.0032952,    -15.7403,  1.1,  0.9,  1.1,  0.9
    85, 'AIKEN 3 0   ',       138, 1,    1,    2, 1,   1.0261471,  -15.871977,  1.1,  0.9,  1.1,  0.9
    86, 'AIKEN 3 1   ',       138, 1,    1,    2, 1,   1.0258566,  -15.907664,  1.1,  0.9,  1.1,  0.9
    87, 'ROCK HILL 3 ',       138, 1,    1,    1, 1,   1.0010163,    0.765842,  1.1,  0.9,  1.1,  0.9
    88, 'ROCK HILL 3 ',       138, 1,    1,    1, 1,   1.0009336,    0.755621,  1.1,  0.9,  1.1,  0.9
    89, 'CAMERON 0   ',       138, 1,    1,    2, 1,   1.0178037,   -11.12825,  1.1,  0.9,  1.1,  0.9
    90, 'CAMERON 1   ',       138, 1,    1,    2, 1,   1.0177118,   -11.14038,  1.1,  0.9,  1.1,  0.9
    91, 'SENECA 2 0  ',       138, 1,    1,    1, 1,   1.0117544,   -7.578928,  1.1,  0.9,  1.1,  0.9
    92, 'SENECA 2 1  ',       138, 1,    1,    1, 1,   1.0107636,   -7.705162,  1.1,  0.9,  1.1,  0.9
    93, 'BLAIR 0     ',       138, 1,    1,    2, 1,   1.0153922,   -6.433699,  1.1,  0.9,  1.1,  0.9
    94, 'BLAIR 1     ',       138, 1,    1,    2, 1,   1.0153197,   -6.442794,  1.1,  0.9,  1.1,  0.9
    95, 'WALHALLA 0  ',       138, 1,    1,    1, 1,   1.0121742,   -7.546726,  1.1,  0.9,  1.1,  0.9
    96, 'WALHALLA 1  ',       138, 1,    1,    1, 1,    1.011693,   -7.605762,  1.1,  0.9,  1.1,  0.9
    97, 'ANDERSON 4 0',       138, 1,    1,    1, 1,   1.0046514,  -18.177695,  1.1,  0.9,  1.1,  0.9
    98, 'ANDERSON 4 1',       138, 1,    1,    1, 1,   1.0040476,  -18.258479,  1.1,  0.9,  1.1,  0.9
    99, 'PACOLET 0   ',       138, 1,    1,    1, 1,   1.0221931,   -9.163343,  1.1,  0.9,  1.1,  0.9
   100, 'PACOLET 1   ',       138, 1,    1,    1, 1,     1.02198,   -9.188916,  1.1,  0.9,  1.1,  0.9
   101, 'PACOLET 2   ',       138, 1,    1,    1, 1,   1.0221794,   -9.164861,  1.1,  0.9,  1.1,  0.9
   102, 'ABBEVILLE 0 ',       138, 1,    1,    1, 1,   1.0029364,  -16.615939,  1.1,  0.9,  1.1,  0.9
   103, 'ABBEVILLE 1 ',       138, 1,    1,    1, 1,   1.0022978,  -16.697995,  1.1,  0.9,  1.1,  0.9
   104, 'AIKEN 2 0   ',       138, 1,    1,    2, 1,   1.0184026,  -17.457678,  1.1,  0.9,  1.1,  0.9
   105, 'AIKEN 2 1   ',       138, 1,    1,    2, 1,   1.0170774,  -17.616391,  1.1,  0.9,  1.1,  0.9
   106, 'JOHNSTON 0  ',       138, 1,    1,    2, 1,   1.0202726,  -14.781528,  1.1,  0.9,  1.1,  0.9
   107, 'JOHNSTON 1  ',       138, 1,    1,    2, 1,   1.0200482,   -14.80843,  1.1,  0.9,  1.1,  0.9
   108, 'SPARTANBURG ',       138, 1,    1,    1, 1,   1.0151317,  -10.097752,  1.1,  0.9,  1.1,  0.9
   109, 'SPARTANBURG ',       138, 1,    1,    1, 1,   1.0144458,  -10.172782,  1.1,  0.9,  1.1,  0.9
   110, 'GAFFNEY 2 0 ',       138, 1,    1,    1, 1,   1.0272383,   -4.906973,  1.1,  0.9,  1.1,  0.9
   111, 'GAFFNEY 2 1 ',       138, 1,    1,    1, 1,   1.0263161,   -5.027748,  1.1,  0.9,  1.1,  0.9
   112, 'LEESVILLE 0 ',       138, 1,    1,    2, 1,   1.0140803,  -13.767323,  1.1,  0.9,  1.1,  0.9
   113, 'LEESVILLE 1 ',       138, 1,    1,    2, 1,   1.0134095,  -13.842899,  1.1,  0.9,  1.1,  0.9
   114, 'LANGLEY 0   ',       138, 1,    1,    2, 1,   1.0191486,  -16.294584,  1.1,  0.9,  1.1,  0.9
   115, 'LANGLEY 1   ',       138, 1,    1,    2, 1,    1.019079,   -16.30359,  1.1,  0.9,  1.1,  0.9
   116, 'LANGLEY 2   ',       138, 1,    1,    2, 1,   1.0191056,  -16.300185,  1.1,  0.9,  1.1,  0.9
   117, 'DONALDS 0   ',       138, 1,    1,    1, 1,   1.0045114,  -13.926792,  1.1,  0.9,  1.1,  0.9
   118, 'DONALDS 1   ',       138, 1,    1,    1, 1,   1.0043653,   -13.94526,  1.1,  0.9,  1.1,  0.9
   119, 'GREENVILLE 7',       138, 1,    1,    1, 1,   0.9870946,  -15.396824,  1.1,  0.9,  1.1,  0.9
   120, 'GREENVILLE 7',       138, 1,    1,    1, 1,   0.9866541,  -15.451021,  1.1,  0.9,  1.1,  0.9
   121, 'COLUMBIA 9 0',       138, 1,    1,    2, 1,   1.0129046,  -13.971263,  1.1,  0.9,  1.1,  0.9
   122, 'COLUMBIA 9 1',       138, 1,    1,    2, 1,   1.0120693,  -14.081572,  1.1,  0.9,  1.1,  0.9
   123, 'SALEM 3 0   ',       345, 1,    1,    1, 1,   1.0300843,   -3.755483,  1.1,  0.9,  1.1,  0.9
   124, 'SALEM 3 1   ',       138, 1,    1,    1, 1,   1.0276461,   -4.458626,  1.1,  0.9,  1.1,  0.9
   125, 'SALEM 3 2   ',      13.8, 2,    1,    1, 1,   1.0300843,   -3.755483,  1.1,  0.9,  1.1,  0.9
   126, 'SALEM 3 3   ',      13.8, 2,    1,    1, 1,   1.0300843,   -3.755483,  1.1,  0.9,  1.1,  0.9
   127, 'SALEM 3 4   ',      13.8, 2,    1,    1, 1,        1.04,    0.394755,  1.1,  0.9,  1.1,  0.9
   128, 'SALEM 3 5   ',      13.8, 2,    1,    1, 1,   1.0395249,   -2.386765,  1.1,  0.9,  1.1,  0.9
   129, 'GREENVILLE 6',       138, 1,    1,    1, 1,   0.9842018,  -15.914608,  1.1,  0.9,  1.1,  0.9
   130, 'GREENVILLE 6',       138, 1,    1,    1, 1,   0.9825607,  -16.100251,  1.1,  0.9,  1.1,  0.9
   131, 'COWPENS 0   ',       138, 1,    1,    1, 1,   1.0202588,    -9.44535,  1.1,  0.9,  1.1,  0.9
   132, 'COWPENS 1   ',       138, 1,    1,    1, 1,   1.0198539,    -9.49303,  1.1,  0.9,  1.1,  0.9
   133, 'WESTMINSTER ',       138, 1,    1,    1, 1,   1.0129048,   -7.505509,  1.1,  0.9,  1.1,  0.9
   134, 'WESTMINSTER ',       138, 1,    1,    1, 1,   1.0123408,   -7.575691,  1.1,  0.9,  1.1,  0.9
   135, 'SAINT MATTHE',       138, 1,    1,    2, 1,   1.0152678,  -11.328869,  1.1,  0.9,  1.1,  0.9
   136, 'SAINT MATTHE',       138, 1,    1,    2, 1,   1.0148653,  -11.381154,  1.1,  0.9,  1.1,  0.9
   137, 'GREENWOOD 2 ',       138, 1,    1,    1, 1,   1.0068193,  -14.045005,  1.1,  0.9,  1.1,  0.9
   138, 'GREENWOOD 2 ',       138, 1,    1,    1, 1,   1.0055899,  -14.207124,  1.1,  0.9,  1.1,  0.9
   139, 'FINGERVILLE ',       138, 1,    1,    1, 1,    1.015832,  -10.108334,  1.1,  0.9,  1.1,  0.9
   140, 'FINGERVILLE ',       138, 1,    1,    1, 1,   1.0158284,  -10.108762,  1.1,  0.9,  1.1,  0.9
   141, 'ROCK HILL 2 ',       138, 1,    1,    1, 1,   1.0005818,   -2.499145,  1.1,  0.9,  1.1,  0.9
   142, 'ROCK HILL 2 ',       138, 1,    1,    1, 1,    0.997985,   -2.798498,  1.1,  0.9,  1.1,  0.9
   143, 'YORK 2 0    ',       138, 1,    1,    1, 1,   1.0187768,     6.50236,  1.1,  0.9,  1.1,  0.9
   144, 'YORK 2 1    ',      13.8, 2,    1,    1, 1,        1.04,   19.035856,  1.1,  0.9,  1.1,  0.9
   145, 'YORK 2 2    ',      13.8, 2,    1,    1, 1,        1.04,    9.200971,  1.1,  0.9,  1.1,  0.9
   146, 'CHAPIN 0    ',       345, 1,    1,    2, 1,   1.0287905,   -7.881098,  1.1,  0.9,  1.1,  0.9
   147, 'CHAPIN 1    ',       138, 1,    1,    2, 1,   1.0171175,   -8.557608,  1.1,  0.9,  1.1,  0.9
   148, 'CHAPIN 2    ',       138, 1,    1,    2, 1,   1.0161874,   -8.677833,  1.1,  0.9,  1.1,  0.9
   149, 'MODOC 0     ',       138, 1,    1,    2, 1,   1.0220666,  -13.723278,  1.1,  0.9,  1.1,  0.9
   150, 'MODOC 1     ',       138, 1,    1,    2, 1,   1.0220421,  -13.726173,  1.1,  0.9,  1.1,  0.9
   151, 'SPARTANBURG ',       345, 1,    1,    1, 1,   1.0281863,   -8.035489,  1.1,  0.9,  1.1,  0.9
   152, 'SPARTANBURG ',       138, 1,    1,    1, 1,   1.0273611,  -10.434389,  1.1,  0.9,  1.1,  0.9
   153, 'SPARTANBURG ',       138, 1,    1,    1, 1,   1.0261234,  -10.584818,  1.1,  0.9,  1.1,  0.9
   154, 'BOILING SPRI',       138, 1,    1,    1, 1,   1.0102266,  -10.979578,  1.1,  0.9,  1.1,  0.9
   155, 'BOILING SPRI',       138, 1,    1,    1, 1,   1.0093414,  -11.087115,  1.1,  0.9,  1.1,  0.9
   156, 'GREENVILLE 5',       138, 1,    1,    1, 1,   0.9894442,  -14.616821,  1.1,  0.9,  1.1,  0.9
   157, 'GREENVILLE 5',       138, 1,    1,    1, 1,   0.9877808,  -14.828219,  1.1,  0.9,  1.1,  0.9
   158, 'PELION 0    ',       138, 1,    1,    2, 1,   1.0108477,  -13.532131,  1.1,  0.9,  1.1,  0.9
   159, 'PELION 1    ',       138, 1,    1,    2, 1,   1.0104779,  -13.579723,  1.1,  0.9,  1.1,  0.9
   160, 'GRANITEVILLE',       138, 1,    1,    2, 1,    1.019849,  -15.042923,  1.1,  0.9,  1.1,  0.9
   161, 'GRANITEVILLE',       138, 1,    1,    2, 1,    1.019465,  -15.091831,  1.1,  0.9,  1.1,  0.9
   162, 'IRMO 0      ',       345, 1,    1,    2, 1,   1.0290799,   -7.842996,  1.1,  0.9,  1.1,  0.9
   163, 'IRMO 1      ',       138, 1,    1,    2, 1,   1.0251989,   -8.622978,  1.1,  0.9,  1.1,  0.9
   164, 'IRMO 2      ',       138, 1,    1,    2, 1,   1.0235494,   -8.827381,  1.1,  0.9,  1.1,  0.9
   165, 'SALEM 2 0   ',       345, 1,    1,    1, 1,   1.0303877,   -3.402552,  1.1,  0.9,  1.1,  0.9
   166, 'SALEM 2 1   ',       138, 1,    1,    1, 1,    1.024584,   -4.970343,  1.1,  0.9,  1.1,  0.9
   167, 'SALEM 2 2   ',      13.8, 2,    1,    1, 1,        1.04,   -1.181749,  1.1,  0.9,  1.1,  0.9
   168, 'SALEM 2 3   ',      13.8, 2,    1,    1, 1,        1.04,    0.266644,  1.1,  0.9,  1.1,  0.9
   169, 'SALEM 2 4   ',      13.8, 2,    1,    1, 1,        1.04,    1.888281,  1.1,  0.9,  1.1,  0.9
   170, 'WEST UNION 0',       138, 1,    1,    1, 1,   1.0116907,   -7.684683,  1.1,  0.9,  1.1,  0.9
   171, 'WEST UNION 1',       138, 1,    1,    1, 1,   1.0115047,   -7.709885,  1.1,  0.9,  1.1,  0.9
   172, 'CROSS HILL 0',       138, 1,    1,    1, 1,   1.0049781,   -12.79909,  1.1,  0.9,  1.1,  0.9
   173, 'CROSS HILL 1',       138, 1,    1,    1, 1,    1.004931,  -12.804343,  1.1,  0.9,  1.1,  0.9
   174, 'CROSS HILL 2',       138, 1,    1,    1, 1,   1.0048766,  -12.811037,  1.1,  0.9,  1.1,  0.9
   175, 'FORT LAWN 0 ',       345, 1,    1,    1, 1,   1.0339354,   -3.550348,  1.1,  0.9,  1.1,  0.9
   176, 'FORT LAWN 1 ',       138, 1,    1,    1, 1,   1.0230476,   -2.722604,  1.1,  0.9,  1.1,  0.9
   177, 'FORT LAWN 2 ',       138, 1,    1,    1, 1,   1.0229161,   -2.739433,  1.1,  0.9,  1.1,  0.9
   178, 'FORT LAWN 3 ',       138, 1,    1,    1, 1,   1.0229459,   -2.733694,  1.1,  0.9,  1.1,  0.9
   179, 'NORTH 0     ',       138, 1,    1,    2, 1,   1.0042483,  -14.756946,  1.1,  0.9,  1.1,  0.9
   180, 'NORTH 1     ',       138, 1,    1,    2, 1,   1.0040265,  -14.781985,  1.1,  0.9,  1.1,  0.9
   181, 'ANDERSON 3 0',       138, 1,    1,    1, 1,   1.0112149,   -17.97497,  1.1,  0.9,  1.1,  0.9
   182, 'ANDERSON 3 1',       138, 1,    1,    1, 1,    1.009884,  -18.139381,  1.1,  0.9,  1.1,  0.9
   183, 'BLACKSBURG 2',       138, 1,    1,    1, 1,   1.0248361,    -6.66188,  1.1,  0.9,  1.1,  0.9
   184, 'BLACKSBURG 2',       138, 1,    1,    1, 1,   1.0244398,   -6.709043,  1.1,  0.9,  1.1,  0.9
   185, 'LIBERTY 0   ',       138, 1,    1,    1, 1,    1.009542,   -9.259349,  1.1,  0.9,  1.1,  0.9
   186, 'LIBERTY 1   ',       138, 1,    1,    1, 1,   1.0089212,   -9.333731,  1.1,  0.9,  1.1,  0.9
   187, 'ELLOREE 0   ',       138, 1,    1,    2, 1,   1.0171045,  -11.513978,  1.1,  0.9,  1.1,  0.9
   188, 'ELLOREE 1   ',       138, 1,    1,    2, 1,   1.0169406,  -11.532133,  1.1,  0.9,  1.1,  0.9
   189, 'WAGENER 0   ',       138, 1,    1,    2, 1,   1.0278199,  -17.179459,  1.1,  0.9,  1.1,  0.9
   190, 'WAGENER 1   ',       138, 1,    1,    2, 1,   1.0276155,  -17.201031,  1.1,  0.9,  1.1,  0.9
   191, 'TRENTON 0   ',       138, 1,    1,    2, 1,   1.0196265,  -15.768651,  1.1,  0.9,  1.1,  0.9
   192, 'TRENTON 1   ',       138, 1,    1,    2, 1,   1.0193542,  -15.801108,  1.1,  0.9,  1.1,  0.9
   193, 'BATESBURG 0 ',       138, 1,    1,    2, 1,   1.0153022,  -14.252592,  1.1,  0.9,  1.1,  0.9
   194, 'BATESBURG 1 ',       138, 1,    1,    2, 1,   1.0148183,  -14.310301,  1.1,  0.9,  1.1,  0.9
   195, 'COLUMBIA 8 0',       345, 1,    1,    2, 1,    1.029082,   -7.870717,  1.1,  0.9,  1.1,  0.9
   196, 'COLUMBIA 8 1',       138, 1,    1,    2, 1,   1.0196956,   -10.12389,  1.1,  0.9,  1.1,  0.9
   197, 'COLUMBIA 8 2',      13.8, 2,    1,    2, 1,        1.04,   -3.003092,  1.1,  0.9,  1.1,  0.9
   198, 'COLUMBIA 8 3',      13.8, 2,    1,    2, 1,        1.04,   -5.456007,  1.1,  0.9,  1.1,  0.9
   199, 'COLUMBIA 8 4',       138, 1,    1,    2, 1,   1.0183547,  -10.272974,  1.1,  0.9,  1.1,  0.9
   200, 'LITTLE MOUNT',       138, 1,    1,    2, 1,   1.0206965,   -9.381187,  1.1,  0.9,  1.1,  0.9
...
0 / END OF BUS DATA, BEGIN LOAD DATA
     2,  1, 1,    1,    2,      42.8,     11.41, 0, 0, 0, 0, 1, 1, 0
     4,  1, 1,    1,    2,    132.69,     35.38, 0, 0, 0, 0, 1, 1, 0
     6,  1, 1,    1,    1,      3.21,      0.86, 0, 0, 0, 0, 1, 1, 0
    11,  1, 1,    1,    2,      2.47,      0.66, 0, 0, 0, 0, 1, 1, 0
    13,  1, 1,    1,    1,     37.16,      9.91, 0, 0, 0, 0, 1, 1, 0
    20,  1, 1,    1,    2,      4.54,      1.21, 0, 0, 0, 0, 1, 1, 0
    22,  1, 1,    1,    2,     148.7,     39.65, 0, 0, 0, 0, 1, 1, 0
    25,  1, 1,    1,    1,      2.28,      0.61, 0, 0, 0, 0, 1, 1, 0
    26,  1, 1,    1,    1,     21.66,      5.78, 0, 0, 0, 0, 1, 1, 0
    28,  1, 1,    1,    1,     62.93,     16.78, 0, 0, 0, 0, 1, 1, 0
    30,  1, 1,    1,    2,     99.97,     26.66, 0, 0, 0, 0, 1, 1, 0
    32,  1, 1,    1,    2,      9.76,       2.6, 0, 0, 0, 0, 1, 1, 0
    34,  1, 1,    1,    2,        25,      6.67, 0, 0, 0, 0, 1, 1, 0
    36,  1, 1,    1,    2,     43.35,     11.56, 0, 0, 0, 0, 1, 1, 0
    38,  1, 1,    1,    1,      0.13,      0.03, 0, 0, 0, 0, 1, 1, 0
    41,  1, 1,    1,    1,     57.99,     15.46, 0, 0, 0, 0, 1, 1, 0
    43,  1, 1,    1,    2,      4.46,      1.19, 0, 0, 0, 0, 1, 1, 0
    45,  1, 1,    1,    2,      2.03,      0.54, 0, 0, 0, 0, 1, 1, 0
    47,  1, 1,    1,    1,     43.41,     11.58, 0, 0, 0, 0, 1, 1, 0
    51,  1, 1,    1,    1,      0.35,      0.09, 0, 0, 0, 0, 1, 1, 0
    52,  1, 1,    1,    1,     23.39,      6.24, 0, 0, 0, 0, 1, 1, 0
    54,  1, 1,    1,    2,     34.81,      9.28, 0, 0, 0, 0, 1, 1, 0
    56,  1, 1,    1,    1,      2.25,       0.6, 0, 0, 0, 0, 1, 1, 0
    59,  1, 1,    1,    1,    140.94,     37.58, 0, 0, 0, 0, 1, 1, 0
    61,  1, 1,    1,    1,       0.2,      0.05, 0, 0, 0, 0, 1, 1, 0
    64,  1, 1,    1,    1,     34.78,      9.27, 0, 0, 0, 0, 1, 1, 0
    67,  1, 1,    1,    1,      4.57,      1.22, 0, 0, 0, 0, 1, 1, 0
    69,  1, 1,    1,    1,     16.96,      4.52, 0, 0, 0, 0, 1, 1, 0
    75,  1, 1,    1,    2,       5.3,      1.41, 0, 0, 0, 0, 1, 1, 0
    77,  1, 1,    1,    1,      6.95,      1.85, 0, 0, 0, 0, 1, 1, 0
    79,  1, 1,    1,    1,      0.38,       0.1, 0, 0, 0, 0, 1, 1, 0
    84,  1, 1,    1,    2,     61.41,     16.38, 0, 0, 0, 0, 1, 1, 0
    86,  1, 1,    1,    2,     17.59,      4.69, 0, 0, 0, 0, 1, 1, 0
    88,  1, 1,    1,    1,      5.25,       1.4, 0, 0, 0, 0, 1, 1, 0
    90,  1, 1,    1,    2,       5.9,      1.57, 0, 0, 0, 0, 1, 1, 0
    92,  1, 1,    1,    1,     65.03,     17.34, 0, 0, 0, 0, 1, 1, 0
    94,  1, 1,    1,    2,      5.21,      1.39, 0, 0, 0, 0, 1, 1, 0
    96,  1, 1,    1,    1,        34,      9.07, 0, 0, 0, 0, 1, 1, 0
    98,  1, 1,    1,    1,     37.09,      9.89, 0, 0, 0, 0, 1, 1, 0
   100,  1, 1,    1,    1,     13.52,      3.61, 0, 0, 0, 0, 1, 1, 0
   101,  1, 1,    1,    1,      0.89,      0.24, 0, 0, 0, 0, 1, 1, 0
   103,  1, 1,    1,    1,      38.8,     10.35, 0, 0, 0, 0, 1, 1, 0
   105,  1, 1,    1,    2,     80.33,     21.42, 0, 0, 0, 0, 1, 1, 0
   107,  1, 1,    1,    2,     16.01,      4.27, 0, 0, 0, 0, 1, 1, 0
   109,  1, 1,    1,    1,     47.58,     12.69, 0, 0, 0, 0, 1, 1, 0
   111,  1, 1,    1,    1,     62.29,     16.61, 0, 0, 0, 0, 1, 1, 0
   113,  1, 1,    1,    2,     45.99,     12.26, 0, 0, 0, 0, 1, 1, 0
   115,  1, 1,    1,    2,      5.06,      1.35, 0, 0, 0, 0, 1, 1, 0
   116,  1, 1,    1,    2,       3.1,      0.83, 0, 0, 0, 0, 1, 1, 0
   118,  1, 1,    1,    1,      8.83,      2.36, 0, 0, 0, 0, 1, 1, 0
   120,  1, 1,    1,    1,     31.65,      8.44, 0, 0, 0, 0, 1, 1, 0
   122,  1, 1,    1,    2,     53.36,     14.23, 0, 0, 0, 0, 1, 1, 0
   130,  1, 1,    1,    1,    103.24,     27.53, 0, 0, 0, 0, 1, 1, 0
   132,  1, 1,    1,    1,      25.2,      6.72, 0, 0, 0, 0, 1, 1, 0
   134,  1, 1,    1,    1,     42.65,     11.37, 0, 0, 0, 0, 1, 1, 0
   136,  1, 1,    1,    2,     26.76,      7.14, 0, 0, 0, 0, 1, 1, 0
   138,  1, 1,    1,    1,     78.71,     20.99, 0, 0, 0, 0, 1, 1, 0
   140,  1, 1,    1,    1,      0.26,      0.07, 0, 0, 0, 0, 1, 1, 0
   142,  1, 1,    1,    1,    161.34,     43.02, 0, 0, 0, 0, 1, 1, 0
   148,  1, 1,    1,    2,     57.42,     15.31, 0, 0, 0, 0, 1, 1, 0
   150,  1, 1,    1,    2,       1.5,       0.4, 0, 0, 0, 0, 1, 1, 0
   153,  1, 1,    1,    1,     93.15,     24.84, 0, 0, 0, 0, 1, 1, 0
   155,  1, 1,    1,    1,     66.84,     17.82, 0, 0, 0, 0, 1, 1, 0
   157,  1, 1,    1,    1,    105.45,     28.12, 0, 0, 0, 0, 1, 1, 0
   159,  1, 1,    1,    2,     22.85,      6.09, 0, 0, 0, 0, 1, 1, 0
   161,  1, 1,    1,    2,     25.95,      6.92, 0, 0, 0, 0, 1, 1, 0
   164,  1, 1,    1,    2,     98.15,     26.17, 0, 0, 0, 0, 1, 1, 0
   171,  1, 1,    1,    1,     12.38,       3.3, 0, 0, 0, 0, 1, 1, 0
   173,  1, 1,    1,    1,      3.14,      0.84, 0, 0, 0, 0, 1, 1, 0
   174,  1, 1,    1,    1,       7.3,      1.95, 0, 0, 0, 0, 1, 1, 0
   177,  1, 1,    1,    1,      8.78,      2.34, 0, 0, 0, 0, 1, 1, 0
   178,  1, 1,    1,    1,      6.81,      1.82, 0, 0, 0, 0, 1, 1, 0
   180,  1, 1,    1,    2,     14.14,      3.77, 0, 0, 0, 0, 1, 1, 0
   182,  1, 1,    1,    1,     82.61,     22.03, 0, 0, 0, 0, 1, 1, 0
   184,  1, 1,    1,    1,     30.18,      8.05, 0, 0, 0, 0, 1, 1, 0
   186,  1, 1,    1,    1,     45.35,     12.09, 0, 0, 0, 0, 1, 1, 0
   188,  1, 1,    1,    2,     11.05,      2.95, 0, 0, 0, 0, 1, 1, 0
   190,  1, 1,    1,    2,     14.07,      3.75, 0, 0, 0, 0, 1, 1, 0
   192,  1, 1,    1,    2,     16.44,      4.38, 0, 0, 0, 0, 1, 1, 0
   194,  1, 1,    1,    2,     28.69,      7.65, 0, 0, 0, 0, 1, 1, 0
   199,  1, 1,    1,    2,     86.39,     23.04, 0, 0, 0, 0, 1, 1, 0
   201,  1, 1,    1,    2,      8.89,      2.37, 0, 0, 0, 0, 1, 1, 0
   203,  1, 1,    1,    1,      4.69,      1.25, 0, 0, 0, 0, 1, 1, 0
   204,  1, 1,    1,    1,     45.67,     12.18, 0, 0, 0, 0, 1, 1, 0
   206,  1, 1,    1,    2,      3.01,       0.8, 0, 0, 0, 0, 1, 1, 0
   207,  1, 1,    1,    2,     22.57,      6.02, 0, 0, 0, 0, 1, 1, 0
   209,  1, 1,    1,    1,     81.85,     21.83, 0, 0, 0, 0, 1, 1, 0
   211,  1, 1,    1,    1,     34.28,      9.14, 0, 0, 0, 0, 1, 1, 0
   213,  1, 1,    1,    2,     97.48,        26, 0, 0, 0, 0, 1, 1, 0
   215,  1, 1,    1,    1,     84.48,     22.53, 0, 0, 0, 0, 1, 1, 0
   217,  1, 1,    1,    1,      55.1,     14.69, 0, 0, 0, 0, 1, 1, 0
   219,  1, 1,    1,    2,      0.33,      0.09, 0, 0, 0, 0, 1, 1, 0
   227,  1, 1,    1,    1,      5.42,      1.45, 0, 0, 0, 0, 1, 1, 0
   229,  1, 1,    1,    1,     54.09,     14.42, 0, 0, 0, 0, 1, 1, 0
   234,  1, 1,    1,    2,     59.96,     15.99, 0, 0, 0, 0, 1, 1, 0
   237,  1, 1,    1,    2,      2.71,      0.72, 0, 0, 0, 0, 1, 1, 0
   239,  1, 1,    1,    1,     39.13,     10.44, 0, 0, 0, 0, 1, 1, 0
   241,  1, 1,    1,    2,     19.74,      5.26, 0, 0, 0, 0, 1, 1, 0
   243,  1, 1,    1,    2,     74.47,     19.86, 0, 0, 0, 0, 1, 1, 0
   245,  1, 1,    1,    1,     11.83,      3.16, 0, 0, 0, 0, 1, 1, 0
   252,  1, 1,    1,    1,    118.68,     31.65, 0, 0, 0, 0, 1, 1, 0
   259,  1, 1,    1,    1,      8.16,      2.18, 0, 0, 0, 0, 1, 1, 0
   261,  1, 1,    1,    1,     18.68,      4.98, 0, 0, 0, 0, 1, 1, 0
   266,  1, 1,    1,    2,     61.78,     16.48, 0, 0, 0, 0, 1, 1, 0
   268,  1, 1,    1,    2,    117.15,     31.24, 0, 0, 0, 0, 1, 1, 0
   270,  1, 1,    1,    2,       6.8,      1.81, 0, 0, 0, 0, 1, 1, 0
   273,  1, 1,    1,    2,      9.49,      2.53, 0, 0, 0, 0, 1, 1, 0
   277,  1, 1,    1,    2,      0.41,      0.11, 0, 0, 0, 0, 1, 1, 0
   278,  1, 1,    1,    2,      5.77,      1.54, 0, 0, 0, 0, 1, 1, 0
   280,  1, 1,    1,    1,     16.94,      4.52, 0, 0, 0, 0, 1, 1, 0
   282,  1, 1,    1,    1,     117.3,     31.28, 0, 0, 0, 0, 1, 1, 0
   284,  1, 1,    1,    2,     32.65,      8.71, 0, 0, 0, 0, 1, 1, 0
   286,  1, 1,    1,    1,      8.27,       2.2, 0, 0, 0, 0, 1, 1, 0
   288,  1, 1,    1,    2,     58.11,      15.5, 0, 0, 0, 0, 1, 1, 0
   290,  1, 1,    1,    1,      3.69,      0.98, 0, 0, 0, 0, 1, 1, 0
   292,  1, 1,    1,    2,      7.62,      2.03, 0, 0, 0, 0, 1, 1, 0
   294,  1, 1,    1,    2,      25.6,      6.83, 0, 0, 0, 0, 1, 1, 0
   296,  1, 1,    1,    1,      7.79,      2.08, 0, 0, 0, 0, 1, 1, 0
   299,  1, 1,    1,    1,     14.57,      3.88, 0, 0, 0, 0, 1, 1, 0
   303,  1, 1,    1,    1,     86.76,     23.14, 0, 0, 0, 0, 1, 1, 0
   307,  1, 1,    1,    1,     76.04,     20.28, 0, 0, 0, 0, 1, 1, 0
   309,  1, 1,    1,    1,      9.03,      2.41, 0, 0, 0, 0, 1, 1, 0
   311,  1, 1,    1,    1,     43.83,     11.69, 0, 0, 0, 0, 1, 1, 0
   313,  1, 1,    1,    2,     12.44,      3.32, 0, 0, 0, 0, 1, 1, 0
   315,  1, 1,    1,    1,      0.43,      0.11, 0, 0, 0, 0, 1, 1, 0
   317,  1, 1,    1,    1,      3.75,         1, 0, 0, 0, 0, 1, 1, 0
   321,  1, 1,    1,    2,    150.42,     40.11, 0, 0, 0, 0, 1, 1, 0
   323,  1, 1,    1,    1,     45.27,     12.07, 0, 0, 0, 0, 1, 1, 0
   325,  1, 1,    1,    1,    103.46,     27.59, 0, 0, 0, 0, 1, 1, 0
   327,  1, 1,    1,    2,    121.07,     32.28, 0, 0, 0, 0, 1, 1, 0
   329,  1, 1,    1,    1,     26.02,      6.94, 0, 0, 0, 0, 1, 1, 0
   331,  1, 1,    1,    1,     57.17,     15.25, 0, 0, 0, 0, 1, 1, 0
   334,  1, 1,    1,    1,       0.5,      0.13, 0, 0, 0, 0, 1, 1, 0
   335,  1, 1,    1,    1,      0.83,      0.22, 0, 0, 0, 0, 1, 1, 0
   337,  1, 1,    1,    1,      5.67,      1.51, 0, 0, 0, 0, 1, 1, 0
   339,  1, 1,    1,    1,      75.1,     20.03, 0, 0, 0, 0, 1, 1, 0
   341,  1, 1,    1,    1,     24.22,      6.46, 0, 0, 0, 0, 1, 1, 0
   343,  1, 1,    1,    2,      2.51,      0.67, 0, 0, 0, 0, 1, 1, 0
   344,  1, 1,    1,    2,      2.43,      0.65, 0, 0, 0, 0, 1, 1, 0
   346,  1, 1,    1,    2,     47.58,     12.69, 0, 0, 0, 0, 1, 1, 0
   348,  1, 1,    1,    1,      86.4,     23.04, 0, 0, 0, 0, 1, 1, 0
   355,  1, 1,    1,    2,     19.97,      5.32, 0, 0, 0, 0, 1, 1, 0
   357,  1, 1,    1,    1,     55.73,     14.86, 0, 0, 0, 0, 1, 1, 0
   359,  1, 1,    1,    1,     14.59,      3.89, 0, 0, 0, 0, 1, 1, 0
   364,  1, 1,    1,    1,     30.44,      8.12, 0, 0, 0, 0, 1, 1, 0
   366,  1, 1,    1,    2,     56.49,     15.06, 0, 0, 0, 0, 1, 1, 0
   368,  1, 1,    1,    1,     11.45,      3.05, 0, 0, 0, 0, 1, 1, 0
   370,  1, 1,    1,    1,      35.6,      9.49, 0, 0, 0, 0, 1, 1, 0
   373,  1, 1,    1,    2,     28.84,      7.69, 0, 0, 0, 0, 1, 1, 0
   375,  1, 1,    1,    2,     24.76,       6.6, 0, 0, 0, 0, 1, 1, 0
   377,  1, 1,    1,    1,     90.39,      24.1, 0, 0, 0, 0, 1, 1, 0
   379,  1, 1,    1,    1,     13.01,      3.47, 0, 0, 0, 0, 1, 1, 0
   381,  1, 1,    1,    1,     10.13,       2.7, 0, 0, 0, 0, 1, 1, 0
   383,  1, 1,    1,    1,     29.95,      7.99, 0, 0, 0, 0, 1, 1, 0
   385,  1, 1,    1,    1,     36.62,      9.77, 0, 0, 0, 0, 1, 1, 0
   397,  1, 1,    1,    1,     39.95,     10.65, 0, 0, 0, 0, 1, 1, 0
   398,  1, 1,    1,    1,     16.77,      4.47, 0, 0, 0, 0, 1, 1, 0
   400,  1, 1,    1,    2,     23.03,      6.14, 0, 0, 0, 0, 1, 1, 0
   402,  1, 1,    1,    1,     88.35,     23.56, 0, 0, 0, 0, 1, 1, 0
   404,  1, 1,    1,    1,     19.77,      5.27, 0, 0, 0, 0, 1, 1, 0
   406,  1, 1,    1,    1,      5.25,       1.4, 0, 0, 0, 0, 1, 1, 0
   416,  1, 1,    1,    2,      6.06,      1.62, 0, 0, 0, 0, 1, 1, 0
   418,  1, 1,    1,    1,     63.62,     16.96, 0, 0, 0, 0, 1, 1, 0
   420,  1, 1,    1,    1,      5.23,      1.39, 0, 0, 0, 0, 1, 1, 0
   422,  1, 1,    1,    2,     49.18,     13.11, 0, 0, 0, 0, 1, 1, 0
   424,  1, 1,    1,    1,     157.1,     41.89, 0, 0, 0, 0, 1, 1, 0
   427,  1, 1,    1,    1,     14.43,      3.85, 0, 0, 0, 0, 1, 1, 0
   446,  1, 1,    1,    1,     88.68,     23.65, 0, 0, 0, 0, 1, 1, 0
   448,  1, 1,    1,    1,     57.56,     15.35, 0, 0, 0, 0, 1, 1, 0
   450,  1, 1,    1,    1,      1.12,       0.3, 0, 0, 0, 0, 1, 1, 0
   451,  1, 1,    1,    1,      2.21,      0.59, 0, 0, 0, 0, 1, 1, 0
   452,  1, 1,    1,    1,     11.16,      2.98, 0, 0, 0, 0, 1, 1, 0
   459,  1, 1,    1,    1,     74.47,     19.86, 0, 0, 0, 0, 1, 1, 0
   460,  1, 1,    1,    1,     26.34,      7.02, 0, 0, 0, 0, 1, 1, 0
   461,  1, 1,    1,    1,     91.72,     24.46, 0, 0, 0, 0, 1, 1, 0
   465,  1, 1,    1,    1,     12.52,      3.34, 0, 0, 0, 0, 1, 1, 0
   466,  1, 1,    1,    1,     43.34,     11.56, 0, 0, 0, 0, 1, 1, 0
   467,  1, 1,    1,    1,      0.81,      0.22, 0, 0, 0, 0, 1, 1, 0
   468,  1, 1,    1,    1,      3.76,         1, 0, 0, 0, 0, 1, 1, 0
   469,  1, 1,    1,    1,    128.53,     34.28, 0, 0, 0, 0, 1, 1, 0
   470,  1, 1,    1,    1,     42.56,     11.35, 0, 0, 0, 0, 1, 1, 0
   472,  1, 1,    1,    1,     49.71,     13.26, 0, 0, 0, 0, 1, 1, 0
   473,  1, 1,    1,    1,         1,      0.27, 0, 0, 0, 0, 1, 1, 0
   474,  1, 1,    1,    1,    167.22,     44.59, 0, 0, 0, 0, 1, 1, 0
   475,  1, 1,    1,    2,      0.16,      0.04, 0, 0, 0, 0, 1, 1, 0
   476,  1, 1,    1,    2,     59.86,     15.96, 0, 0, 0, 0, 1, 1, 0
   477,  1, 1,    1,    1,     31.33,      8.35, 0, 0, 0, 0, 1, 1, 0
   478,  1, 1,    1,    1,      9.16,      2.44, 0, 0, 0, 0, 1, 1, 0
   485,  1, 1,    1,    2,     27.88,      7.43, 0, 0, 0, 0, 1, 1, 0
   486,  1, 1,    1,    2,     68.54,     18.28, 0, 0, 0, 0, 1, 1, 0
   487,  1, 1,    1,    1,     11.67,      3.11, 0, 0, 0, 0, 1, 1, 0
   488,  1, 1,    1,    1,      97.9,     26.11, 0, 0, 0, 0, 1, 1, 0
   489,  1, 1,    1,    2,      3.68,      0.98, 0, 0, 0, 0, 1, 1, 0
   490,  1, 1,    1,    1,     29.81,      7.95, 0, 0, 0, 0, 1, 1, 0
   491,  1, 1,    1,    2,    119.53,     31.87, 0, 0, 0, 0, 1, 1, 0
   492,  1, 1,    1,    1,     59.54,     15.88, 0, 0, 0, 0, 1, 1, 0
   493,  1, 1,    1,    1,      4.05,      1.08, 0, 0, 0, 0, 1, 1, 0
   495,  1, 1,    1,    1,     75.17,     20.05, 0, 0, 0, 0, 1, 1, 0
   499,  1, 1,    1,    2,    122.33,     32.62, 0, 0, 0, 0, 1, 1, 0
   500,  1, 1,    1,    2,     23.43,      6.25, 0, 0, 0, 0, 1, 1, 0
0 / END OF LOAD DATA, BEGIN FIXED SHUNT DATA
    27, 1, 1,       0,      50
    31, 1, 1,       0,     100
   110, 1, 1,       0,      50
   141, 1, 1,       0,      50
   152, 1, 1,       0,      70
   181, 1, 1,       0,      60
   208, 1, 1,       0,      80
   242, 1, 1,       0,      70
   263, 1, 1,       0,     120
   300, 1, 1,       0,      40
   310, 1, 1,       0,      50
   417, 1, 1,       0,     110
   426, 1, 1,       0,      50
   445, 1, 1,       0,      40
   491, 1, 1,       0,      50
0 / END OF FIXED SHUNT DATA, BEGIN GENERATOR DATA
     9,  1,     771.8,    105.75,    359.66,    -94.16,     1.04, 0,  926.16, 0, 1, 0, 0, 1, 1, 100,     771.8,    231.54, 1, 1, 0, 1, 0, 1, 0, 1, 0, 1
    16,  1,    444.45,     84.69,    163.56,    -36.44,     1.04, 0,  533.34, 0, 1, 0, 0, 1, 1, 100,    444.45,    133.33, 1, 1, 0, 1, 0, 1, 0, 1, 0, 1
    17,  1,     888.9,    150.17,    327.12,    -72.89,     1.04, 0, 1066.68, 0, 1, 0, 0, 1, 1, 100,     888.9,    266.67, 1, 1, 0, 1, 0, 1, 0, 1, 0, 1
    18,  1,     157.6,     21.68,        58,    -12.92,     1.04, 0,  189.12, 0, 1, 0, 0, 1, 1, 100,     157.6,     47.28, 1, 1, 0, 1, 0, 1, 0, 1, 0, 1
    49,  1,       1.3,      0.61,      0.61,     -0.16,     1.04, 0,    1.56, 0, 1, 0, 0, 1, 1, 100,       1.3,      0.39, 1, 1, 0, 1, 0, 1, 0, 1, 0, 1
    50,  1,       2.6,      1.21,      1.21,     -0.32,     1.04, 0,    3.12, 0, 1, 0, 0, 1, 1, 100,       2.6,      0.78, 1, 1, 0, 1, 0, 1, 0, 1, 0, 1
    63,  1,         0,         0,      1.63,     -0.36,     1.04, 0,    3.84, 0, 1, 0, 0, 1, 0, 100,       3.2,      0.96, 1, 1, 0, 1, 0, 1, 0, 1, 0, 1
    71,  1,         4,      1.54,      1.54,      -0.2,     1.04, 0,     4.8, 0, 1, 0, 0, 1, 1, 100,         4,       1.2, 1, 1, 0, 1, 0, 1, 0, 1, 0, 1
    72,  1,         2,      0.77,      0.77,      -0.1,     1.04, 0,     2.4, 0, 1, 0, 0, 1, 1, 100,         2,       0.6, 1, 1, 0, 1, 0, 1, 0, 1, 0, 1
    73,  1,       1.4,      0.54,      0.54,     -0.07,     1.04, 0,    1.68, 0, 1, 0, 0, 1, 1, 100,       1.4,      0.42, 1, 1, 0, 1, 0, 1, 0, 1, 0, 1
    82,  1,     361.9,     41.13,    138.97,    -17.73,     1.04, 0,  434.28, 0, 1, 0, 0, 1, 1, 100,     361.9,    108.57, 1, 1, 0, 1, 0, 1, 0, 1, 0, 1
   125,  1,         0,         0,     62.21,     -7.94,     1.04, 0,   194.4, 0, 1, 0, 0, 1, 0, 100,       162,      48.6, 1, 1, 0, 1, 0, 1, 0, 1, 0, 1
   126,  1,         0,         0,     62.21,     -7.94,     1.04, 0,   194.4, 0, 1, 0, 0, 1, 0, 100,       162,      48.6, 1, 1, 0, 1, 0, 1, 0, 1, 0, 1
   127,  1,       162,      26.1,     62.21,     -7.94,     1.04, 0,   194.4, 0, 1, 0, 0, 1, 1, 100,       162,      48.6, 1, 1, 0, 1, 0, 1, 0, 1, 0, 1
   128,  1,       162,     62.21,     62.21,     -7.94,     1.04, 0,   194.4, 0, 1, 0, 0, 1, 1, 100,       162,      48.6, 1, 1, 0, 1, 0, 1, 0, 1, 0, 1
   144,  1,    602.55,     111.6,    221.74,    -49.41,     1.04, 0,  723.06, 0, 1, 0, 0, 1, 1, 100,    602.55,    180.76, 1, 1, 0, 1, 0, 1, 0, 1, 0, 1
   145,  1,    300.55,    127.35,    221.74,    -49.41,     1.04, 0,  723.06, 0, 1, 0, 0, 1, 1, 100,    602.55,    180.76, 1, 1, 0, 1, 0, 1, 0, 1, 0, 1
   167,  1,     193.5,     45.92,      74.3,     -9.48,     1.04, 0,   232.2, 0, 1, 0, 0, 1, 1, 100,     193.5,     58.05, 1, 1, 0, 1, 0, 1, 0, 1, 0, 1
   168,  1,     193.5,     32.78,      74.3,     -9.48,     1.04, 0,   232.2, 0, 1, 0, 0, 1, 1, 100,     193.5,     58.05, 1, 1, 0, 1, 0, 1, 0, 1, 0, 1
   169,  1,       387,     51.63,    148.61,    -18.96,     1.04, 0,   464.4, 0, 1, 0, 0, 1, 1, 100,       387,     116.1, 1, 1, 0, 1, 0, 1, 0, 1, 0, 1
   197,  1,     293.6,     43.37,    136.82,    -35.82,     1.04, 0,  352.32, 0, 1, 0, 0, 1, 1, 100,     293.6,     88.08, 1, 1, 0, 1, 0, 1, 0, 1, 0, 1
   198,  1,     207.3,     52.65,      96.6,    -25.29,     1.04, 0,  248.76, 0, 1, 0, 0, 1, 1, 100,     207.3,     62.19, 1, 1, 0, 1, 0, 1, 0, 1, 0, 1
   222,  1,       5.2,         2,         2,     -0.25,     1.04, 0,    6.24, 0, 1, 0, 0, 1, 1, 100,       5.2,      1.56, 1, 1, 0, 1, 0, 1, 0, 1, 0, 1
   223,  1,        18,      6.91,      6.91,     -0.88,     1.04, 0,    21.6, 0, 1, 0, 0, 1, 1, 100,        18,       5.4, 1, 1, 0, 1, 0, 1, 0, 1, 0, 1
   224,  1,     511.2,     40.11,     196.3,    -25.05,     1.04, 0,  613.44, 0, 1, 0, 0, 1, 1, 100,     511.2,    153.36, 1, 1, 0, 1, 0, 1, 0, 1, 0, 1
   225,  1,     514.8,     69.67,    197.68,    -25.23,     1.04, 0,  617.76, 0, 1, 0, 0, 1, 1, 100,     514.8,    154.44, 1, 1, 0, 1, 0, 1, 0, 1, 0, 1
   231,  1,       2.9,      1.35,      1.35,     -0.35,     1.04, 0,    3.48, 0, 1, 0, 0, 1, 1, 100,       2.9,      0.87, 1, 1, 0, 1, 0, 1, 0, 1, 0, 1
   248,  1,         0,         0,      67.8,    -14.79,     1.04, 0,  159.84, 0, 1, 0, 0, 1, 0, 100,     133.2,     39.96, 1, 1, 0, 1, 0, 1, 0, 1, 0, 1
   249,  1,         0,         0,      67.8,    -14.79,     1.04, 0,  159.84, 0, 1, 0, 0, 1, 0, 100,     133.2,     39.96, 1, 1, 0, 1, 0, 1, 0, 1, 0, 1
   250,  1,         0,         0,     271.2,    -59.14,     1.04, 0,  639.36, 0, 1, 0, 0, 1, 0, 100,     532.8,    159.84, 1, 1, 0, 1, 0, 1, 0, 1, 0, 1
   254,  1,         0,         0,      1.91,      -0.5,     1.04, 0,    4.92, 0, 1, 0, 0, 1, 0, 100,       4.1,      1.23, 1, 1, 0, 1, 0, 1, 0, 1, 0, 1
   255,  1,         0,         0,      1.54,      -0.4,     1.04, 0,    3.96, 0, 1, 0, 0, 1, 0, 100,       3.3,      0.99, 1, 1, 0, 1, 0, 1, 0, 1, 0, 1
   256,  1,         0,         0,      1.35,     -0.35,     1.04, 0,    3.48, 0, 1, 0, 0, 1, 0, 100,       2.9,      0.87, 1, 1, 0, 1, 0, 1, 0, 1, 0, 1
   257,  1,         0,         0,      2.52,     -0.66,     1.04, 0,    6.48, 0, 1, 0, 0, 1, 0, 100,       5.4,      1.62, 1, 1, 0, 1, 0, 1, 0, 1, 0, 1
   258,  1,       1.1,      0.51,      0.51,     -0.13,     1.04, 0,    1.32, 0, 1, 0, 0, 1, 1, 100,       1.1,      0.33, 1, 1, 0, 1, 0, 1, 0, 1, 0, 1
   264,  1,         0,         0,     19.95,     -4.35,     1.04, 0,   47.04, 0, 1, 0, 0, 1, 0, 100,      39.2,     11.76, 1, 1, 0, 1, 0, 1, 0, 1, 0, 1
   265,  1,         0,         0,       5.4,     -1.18,     1.04, 0,   12.72, 0, 1, 0, 0, 1, 0, 100,      10.6,      3.18, 1, 1, 0, 1, 0, 1, 0, 1, 0, 1
   275,  1,         0,         0,     51.51,    -11.23,     1.04, 0,  121.44, 0, 1, 0, 0, 1, 0, 100,     101.2,     30.36, 1, 1, 0, 1, 0, 1, 0, 1, 0, 1
   301,  1,       2.9,      1.35,      1.35,     -0.35,     1.04, 0,    3.48, 0, 1, 0, 0, 1, 1, 100,       2.9,      0.87, 1, 1, 0, 1, 0, 1, 0, 1, 0, 1
   302,  1,       2.9,      1.35,      1.35,     -0.35,     1.04, 0,    3.48, 0, 1, 0, 0, 1, 1, 100,       2.9,      0.87, 1, 1, 0, 1, 0, 1, 0, 1, 0, 1
   305,  1,         1,      0.38,      0.38,     -0.05,     1.04, 0,     1.2, 0, 1, 0, 0, 1, 1, 100,         1,       0.3, 1, 1, 0, 1, 0, 1, 0, 1, 0, 1
   306,  1,       2.4,      0.92,      0.92,     -0.12,     1.04, 0,    2.88, 0, 1, 0, 0, 1, 1, 100,       2.4,      0.72, 1, 1, 0, 1, 0, 1, 0, 1, 0, 1
   319,  1,      42.3,     16.24,     16.24,     -2.07,     1.04, 0,   50.76, 0, 1, 0, 0, 1, 1, 100,      42.3,     12.69, 1, 1, 0, 1, 0, 1, 0, 1, 0, 1
   350,  1,        15,      5.76,      5.76,     -0.74,     1.04, 0,      18, 0, 1, 0, 0, 1, 1, 100,        15,       4.5, 1, 1, 0, 1, 0, 1, 0, 1, 0, 1
   351,  1,       6.2,      2.38,      2.38,      -0.3,     1.04, 0,    7.44, 0, 1, 0, 0, 1, 1, 100,       6.2,      1.86, 1, 1, 0, 1, 0, 1, 0, 1, 0, 1
   352,  1,      14.4,      5.53,      5.53,     -0.71,     1.04, 0,   17.28, 0, 1, 0, 0, 1, 1, 100,      14.4,      4.32, 1, 1, 0, 1, 0, 1, 0, 1, 0, 1
   353,  1,        74,     28.42,     28.42,     -3.63,     1.04, 0,    88.8, 0, 1, 0, 0, 1, 1, 100,        74,      22.2, 1, 1, 0, 1, 0, 1, 0, 1, 0, 1
   361,  1,         0,         0,      0.81,     -0.18,     1.04, 0,    1.92, 0, 1, 0, 0, 1, 0, 100,       1.6,      0.48, 1, 1, 0, 1, 0, 1, 0, 1, 0, 1
   362,  1,         0,         0,       5.6,     -1.22,     1.04, 0,    13.2, 0, 1, 0, 0, 1, 0, 100,        11,       3.3, 1, 1, 0, 1, 0, 1, 0, 1, 0, 1
   363,  1,         0,         0,      1.63,     -0.36,     1.04, 0,    3.84, 0, 1, 0, 0, 1, 0, 100,       3.2,      0.96, 1, 1, 0, 1, 0, 1, 0, 1, 0, 1
   388,  1,         0,         0,      5.09,     -1.11,     1.04, 0,      12, 0, 1, 0, 0, 1, 0, 100,        10,         3, 1, 1, 0, 1, 0, 1, 0, 1, 0, 1
   389,  1,         0,         0,     88.23,    -19.24,     1.04, 0,     208, 0, 1, 0, 0, 1, 1, 100,    173.33,        52, 1, 1, 0, 1, 0, 1, 0, 1, 0, 1
   390,  1,         0,         0,     88.23,    -19.24,     1.04, 0,     208, 0, 1, 0, 0, 1, 1, 100,    173.33,        52, 1, 1, 0, 1, 0, 1, 0, 1, 0, 1
   391,  1,         0,         0,     88.23,    -19.24,     1.04, 0,     208, 0, 1, 0, 0, 1, 1, 100,    173.33,        52, 1, 1, 0, 1, 0, 1, 0, 1, 0, 1
   392,  1,         0,         0,     59.25,    -12.92,     1.04, 0,  139.68, 0, 1, 0, 0, 1, 0, 100,     116.4,     34.92, 1, 1, 0, 1, 0, 1, 0, 1, 0, 1
   393,  1,         0,         0,     59.25,    -12.92,     1.04, 0,  139.68, 0, 1, 0, 0, 1, 0, 100,     116.4,     34.92, 1, 1, 0, 1, 0, 1, 0, 1, 0, 1
   394,  1,         0,         0,     59.25,    -12.92,     1.04, 0,  139.68, 0, 1, 0, 0, 1, 0, 100,     116.4,     34.92, 1, 1, 0, 1, 0, 1, 0, 1, 0, 1
   395,  1,         0,         0,     59.25,    -12.92,     1.04, 0,  139.68, 0, 1, 0, 0, 1, 1, 100,     116.4,     34.92, 1, 1, 0, 1, 0, 1, 0, 1, 0, 1
   396,  1,         0,         0,     59.25,    -12.92,     1.04, 0,  139.68, 0, 1, 0, 0, 1, 0, 100,     116.4,     34.92, 1, 1, 0, 1, 0, 1, 0, 1, 0, 1
   409,  1,         0,         0,      50.9,     -11.1,     1.04, 0,     120, 0, 1, 0, 0, 1, 0, 100,       100,        30, 1, 1, 0, 1, 0, 1, 0, 1, 0, 1
   410,  1,     77.97,     14.91,     69.71,     -15.2,     1.04, 0,  164.34, 0, 1, 0, 0, 1, 1, 100,    136.95,     41.08, 1, 1, 0, 1, 0, 1, 0, 1, 0, 1
   411,  1,     79.43,     25.56,     69.71,     -15.2,     1.04, 0,  164.34, 0, 1, 0, 0, 1, 1, 100,    136.95,     41.08, 1, 1, 0, 1, 0, 1, 0, 1, 0, 1
   412,  1,     79.43,     22.36,     69.71,     -15.2,     1.04, 0,  164.34, 0, 1, 0, 0, 1, 1, 100,    136.95,     41.08, 1, 1, 0, 1, 0, 1, 0, 1, 0, 1
   413,  1,     60.26,     14.63,     69.71,     -15.2,     1.04, 0,  164.34, 0, 1, 0, 0, 1, 1, 100,    136.95,     41.08, 1, 1, 0, 1, 0, 1, 0, 1, 0, 1
   414,  1,         0,         0,     56.55,    -12.33,     1.04, 0,  133.32, 0, 1, 0, 0, 1, 0, 100,     111.1,     33.33, 1, 1, 0, 1, 0, 1, 0, 1, 0, 1
   430,  1,         1,      0.38,      0.38,     -0.05,     1.04, 0,     1.2, 0, 1, 0, 0, 1, 1, 100,         1,       0.3, 1, 1, 0, 1, 0, 1, 0, 1, 0, 1
   431,  1,       3.3,      1.27,      1.27,     -0.16,     1.04, 0,    3.96, 0, 1, 0, 0, 1, 1, 100,       3.3,      0.99, 1, 1, 0, 1, 0, 1, 0, 1, 0, 1
   432,  1,       1.2,      0.46,      0.46,     -0.06,     1.04, 0,    1.44, 0, 1, 0, 0, 1, 1, 100,       1.2,      0.36, 1, 1, 0, 1, 0, 1, 0, 1, 0, 1
   433,  1,       6.7,      2.57,      2.57,     -0.33,     1.04, 0,    8.04, 0, 1, 0, 0, 1, 1, 100,       6.7,      2.01, 1, 1, 0, 1, 0, 1, 0, 1, 0, 1
   434,  1,       4.3,      1.65,      1.65,     -0.21,     1.04, 0,    5.16, 0, 1, 0, 0, 1, 1, 100,       4.3,      1.29, 1, 1, 0, 1, 0, 1, 0, 1, 0, 1
   435,  1,         0,         0,     75.65,     -9.65,     1.04, 0,   236.4, 0, 1, 0, 0, 1, 0, 100,       197,      59.1, 1, 1, 0, 1, 0, 1, 0, 1, 0, 1
   436,  1,         0,         0,     75.65,     -9.65,     1.04, 0,   236.4, 0, 1, 0, 0, 1, 0, 100,       197,      59.1, 1, 1, 0, 1, 0, 1, 0, 1, 0, 1
   437,  1,       197,     52.73,     75.65,     -9.65,     1.04, 0,   236.4, 0, 1, 0, 0, 1, 1, 100,       197,      59.1, 1, 1, 0, 1, 0, 1, 0, 1, 0, 1
   438,  1,       197,     40.14,     75.65,     -9.65,     1.04, 0,   236.4, 0, 1, 0, 0, 1, 1, 100,       197,      59.1, 1, 1, 0, 1, 0, 1, 0, 1, 0, 1
   439,  1,       197,     65.63,     75.65,     -9.65,     1.04, 0,   236.4, 0, 1, 0, 0, 1, 1, 100,       197,      59.1, 1, 1, 0, 1, 0, 1, 0, 1, 0, 1
   442,  1,         0,         0,     54.97,    -11.99,     1.04, 0,   129.6, 0, 1, 0, 0, 1, 0, 100,       108,      32.4, 1, 1, 0, 1, 0, 1, 0, 1, 0, 1
   443,  1,         0,         0,     89.07,    -19.43,     1.04, 0,     210, 0, 1, 0, 0, 1, 0, 100,       175,      52.5, 1, 1, 0, 1, 0, 1, 0, 1, 0, 1
   444,  1,         0,         0,      1.68,     -0.37,     1.04, 0,    3.96, 0, 1, 0, 0, 1, 0, 100,       3.3,      0.99, 1, 1, 0, 1, 0, 1, 0, 1, 0, 1
   455,  1,     66.85,     56.51,    113.42,    -24.73,     1.04, 0,   267.4, 0, 1, 0, 0, 1, 1, 100,    222.83,     66.85, 1, 1, 0, 1, 0, 1, 0, 1, 0, 1
   456,  1,     133.7,     55.65,    226.84,    -49.47,     1.04, 0,   534.8, 0, 1, 0, 0, 1, 1, 100,    445.67,     133.7, 1, 1, 0, 1, 0, 1, 0, 1, 0, 1
   458,  1,     109.6,         0,         0,         0,     1.04, 0,  131.52, 0, 1, 0, 0, 1, 1, 100,     109.6,     32.88, 1, 1, 0, 1, 0, 1, 0, 1, 0, 1
   463,  1,         0,         0,      3.36,     -0.88,     1.04, 0,    8.64, 0, 1, 0, 0, 1, 0, 100,       7.2,      2.16, 1, 1, 0, 1, 0, 1, 0, 1, 0, 1
   480,  1,        56,      9.62,      21.5,     -2.74,     1.04, 0,    67.2, 0, 1, 0, 0, 1, 1, 100,        56,      16.8, 1, 1, 0, 1, 0, 1, 0, 1, 0, 1
   481,  1,        45,      12.1,     17.28,     -2.21,     1.04, 0,      54, 0, 1, 0, 0, 1, 1, 100,        45,      13.5, 1, 1, 0, 1, 0, 1, 0, 1, 0, 1
   482,  1,        45,     17.28,     17.28,     -2.21,     1.04, 0,      54, 0, 1, 0, 0, 1, 1, 100,        45,      13.5, 1, 1, 0, 1, 0, 1, 0, 1, 0, 1
   483,  1,        24,      6.25,      9.22,     -1.18,     1.04, 0,    28.8, 0, 1, 0, 0, 1, 1, 100,        24,       7.2, 1, 1, 0, 1, 0, 1, 0, 1, 0, 1
   484,  1,        28,     10.75,     10.75,     -1.37,     1.04, 0,    33.6, 0, 1, 0, 0, 1, 1, 100,        28,       8.4, 1, 1, 0, 1, 0, 1, 0, 1, 0, 1
   494,  1,         0,         0,       2.7,     -0.71,     1.04, 0,    6.96, 0, 1, 0, 0, 1, 0, 100,       5.8,      1.74, 1, 1, 0, 1, 0, 1, 0, 1, 0, 1
   497,  1,        60,     23.04,     23.04,     -2.94,     1.04, 0,      72, 0, 1, 0, 0, 1, 1, 100,        60,        18, 1, 1, 0, 1, 0, 1, 0, 1, 0, 1
   498,  1,        18,      6.91,      6.91,     -0.88,     1.04, 0,    21.6, 0, 1, 0, 0, 1, 1, 100,        18,       5.4, 1, 1, 0, 1, 0, 1, 0, 1, 0, 1
0 / END OF GENERATOR DATA, BEGIN BRANCH DATA
     2,      1, 1, 0.000531,  0.00314,        0,    76.5,       0,       0, 0, 0, 0, 0, 1, 1, 0, 1, 1, 0, 1, 0, 1, 0, 1
    44,      1, 1, 0.005479, 0.050257,  0.01781,  320.29,       0,       0, 0, 0, 0, 0, 1, 1, 0, 1, 1, 0, 1, 0, 1, 0, 1
   421,      1, 1, 0.005369, 0.051555,  0.01664,  320.29,       0,       0, 0, 0, 0, 0, 1, 1, 0, 1, 1, 0, 1, 0, 1, 0, 1
     4,      3, 1, 0.000692, 0.003518,        0,  225.06,       0,       0, 0, 0, 0, 0, 1, 1, 0, 1, 1, 0, 1, 0, 1, 0, 1
    62,      3, 1, 0.002718, 0.026098,  0.00842,  320.29,       0,       0, 0, 0, 0, 0, 1, 1, 0, 1, 1, 0, 1, 0, 1, 0, 1
     3,    479, 1, 0.007258, 0.069699,   0.0225,  320.29,       0,       0, 0, 0, 0, 0, 1, 1, 0, 1, 1, 0, 1, 0, 1, 0, 1
     6,      5, 1, 0.000556, 0.003563,        0,    4.49,       0,       0, 0, 0, 0, 0, 1, 1, 0, 1, 1, 0, 1, 0, 1, 0, 1
   316,      5, 1, 0.002445,  0.02348,  0.00758,  320.29,       0,       0, 0, 0, 0, 0, 1, 1, 0, 1, 1, 0, 1, 0, 1, 0, 1
   401,      5, 1, 0.004886,  0.04692,  0.01515,  320.29,       0,       0, 0, 0, 0, 0, 1, 1, 0, 1, 1, 0, 1, 0, 1, 0, 1
     7,    232, 1, 0.001119, 0.014808,  0.31205, 1493.89,       0,       0, 0, 0, 0, 0, 1, 1, 0, 1, 1, 0, 1, 0, 1, 0, 1
     7,    262, 1, 0.000947, 0.013749,  0.23994, 1493.89,       0,       0, 0, 0, 0, 0, 1, 1, 0, 1, 1, 0, 1, 0, 1, 0, 1
     8,    287, 1, 0.003727, 0.035786,  0.01155,  320.29,       0,       0, 0, 0, 0, 0, 1, 1, 0, 1, 1, 0, 1, 0, 1, 0, 1
     8,    457, 1, 0.001974, 0.018955,  0.00612,  320.29,       0,       0, 0, 0, 0, 0, 1, 1, 0, 1, 1, 0, 1, 0, 1, 0, 1
    11,     10, 1, 0.000655, 0.003201,        0,    3.96,       0,       0, 0, 0, 0, 0, 1, 1, 0, 1, 1, 0, 1, 0, 1, 0, 1
   342,     10, 1, 0.002825, 0.027123,  0.00876,  320.29,       0,       0, 0, 0, 0, 0, 1, 1, 0, 1, 1, 0, 1, 0, 1, 0, 1
    10,    349, 1, 0.001402,  0.01346,  0.00434,  320.29,       0,       0, 0, 0, 0, 0, 1, 1, 0, 1, 1, 0, 1, 0, 1, 0, 1
    13,     12, 1, 0.000623, 0.003134,        0,    65.5,       0,       0, 0, 0, 0, 0, 1, 1, 0, 1, 1, 0, 1, 0, 1, 0, 1
    12,    216, 1, 0.003962, 0.038048,  0.01228,  320.29,       0,       0, 0, 0, 0, 0, 1, 1, 0, 1, 1, 0, 1, 0, 1, 0, 1
    12,    304, 1,  0.00231, 0.021191,  0.00751,  320.29,       0,       0, 0, 0, 0, 0, 1, 1, 0, 1, 1, 0, 1, 0, 1, 0, 1
    12,    441, 1, 0.001565, 0.015025,  0.00485,  320.29,       0,       0, 0, 0, 0, 0, 1, 1, 0, 1, 1, 0, 1, 0, 1, 0, 1
   386,     14, 1, 0.000317, 0.004547,  0.08136, 1493.89,       0,       0, 0, 0, 0, 0, 1, 1, 0, 1, 1, 0, 1, 0, 1, 0, 1
   386,     14, 2,  0.00032,  0.00455,  0.08136,  1493.9,       0,       0, 0, 0, 0, 0, 1, 1, 0, 1, 1, 0, 1, 0, 1, 0, 1
    15,     91, 1, 0.004799, 0.046085,  0.01488,  320.29,       0,       0, 0, 0, 0, 0, 1, 1, 0, 1, 1, 0, 1, 0, 1, 0, 1
    15,    230, 1, 0.010894, 0.104607,  0.03377,  320.29,       0,       0, 0, 0, 0, 0, 1, 1, 0, 1, 1, 0, 1, 0, 1, 0, 1
   367,     15, 1, 0.001918, 0.018416,  0.00594,  320.29,       0,       0, 0, 0, 0, 0, 1, 1, 0, 1, 1, 0, 1, 0, 1, 0, 1
    15,    369, 1, 0.001854,  0.01701,  0.00603,  320.29,       0,       0, 0, 0, 0, 0, 1, 1, 0, 1, 1, 0, 1, 0, 1, 0, 1
    15,    473, 1, 0.009225, 0.084621,  0.02999,  320.29,       0,       0, 0, 0, 0, 0, 1, 1, 0, 1, 1, 0, 1, 0, 1, 0, 1
    20,     19, 1, 0.000541, 0.003886,        0,    7.53,       0,       0, 0, 0, 0, 0, 1, 1, 0, 1, 1, 0, 1, 0, 1, 0, 1
    19,    112, 1, 0.004722, 0.045345,  0.01464,  320.29,       0,       0, 0, 0, 0, 0, 1, 1, 0, 1, 1, 0, 1, 0, 1, 0, 1
   193,     19, 1, 0.002221, 0.021323,  0.00688,  320.29,       0,       0, 0, 0, 0, 0, 1, 1, 0, 1, 1, 0, 1, 0, 1, 0, 1
    19,    272, 1, 0.002293,  0.02202,  0.00711,  320.29,       0,       0, 0, 0, 0, 0, 1, 1, 0, 1, 1, 0, 1, 0, 1, 0, 1
    22,     21, 1, 0.000587, 0.003174,        0,  254.15,       0,       0, 0, 0, 0, 0, 1, 1, 0, 1, 1, 0, 1, 0, 1, 0, 1
    21,    112, 1, 0.005092, 0.048896,  0.01578,  320.29,       0,       0, 0, 0, 0, 0, 1, 1, 0, 1, 1, 0, 1, 0, 1, 0, 1
    21,    196, 1, 0.002207, 0.020247,  0.00718,  320.29,       0,       0, 0, 0, 0, 0, 1, 1, 0, 1, 1, 0, 1, 0, 1, 0, 1
   151,     23, 1, 0.000182, 0.002607,  0.04665, 1493.89,       0,       0, 0, 0, 0, 0, 1, 1, 0, 1, 1, 0, 1, 0, 1, 0, 1
    23,    386, 1, 0.001642, 0.023851,  0.41623, 1493.89,       0,       0, 0, 0, 0, 0, 1, 1, 0, 1, 1, 0, 1, 0, 1, 0, 1
    23,    464, 1, 0.000947, 0.012532,  0.26411, 1493.89,       0,       0, 0, 0, 0, 0, 1, 1, 0, 1, 1, 0, 1, 0, 1, 0, 1
    23,    471, 1, 0.000532, 0.007041,  0.14837, 1493.89,       0,       0, 0, 0, 0, 0, 1, 1, 0, 1, 1, 0, 1, 0, 1, 0, 1
    25,     24, 1, 0.000613, 0.003629,        0,    3.56,       0,       0, 0, 0, 0, 0, 1, 1, 0, 1, 1, 0, 1, 0, 1, 0, 1
    26,     24, 1, 0.000563, 0.003729,        0,   29.46,       0,       0, 0, 0, 0, 0, 1, 1, 0, 1, 1, 0, 1, 0, 1, 0, 1
   210,     24, 1, 0.002218, 0.020344,  0.00721,  320.29,       0,       0, 0, 0, 0, 0, 1, 1, 0, 1, 1, 0, 1, 0, 1, 0, 1
    24,    360, 1, 0.002365, 0.022714,  0.00733,  320.29,       0,       0, 0, 0, 0, 0, 1, 1, 0, 1, 1, 0, 1, 0, 1, 0, 1
    28,     27, 1, 0.000687, 0.003963,        0,  108.61,       0,       0, 0, 0, 0, 0, 1, 1, 0, 1, 1, 0, 1, 0, 1, 0, 1
    27,     68, 1, 0.005607, 0.053845,  0.01738,  320.29,       0,       0, 0, 0, 0, 0, 1, 1, 0, 1, 1, 0, 1, 0, 1, 0, 1
    27,    382, 1,  0.00337, 0.030912,  0.01095,  320.29,       0,       0, 0, 0, 0, 0, 1, 1, 0, 1, 1, 0, 1, 0, 1, 0, 1
    30,     29, 1, 0.000616, 0.003298,        0,  156.98,       0,       0, 0, 0, 0, 0, 1, 1, 0, 1, 1, 0, 1, 0, 1, 0, 1
   454,     29, 1,  0.00247, 0.022656,  0.00803,  320.29,       0,       0, 0, 0, 0, 0, 1, 1, 0, 1, 1, 0, 1, 0, 1, 0, 1
    29,    491, 1, 0.005607, 0.053837,  0.01738,  320.29,       0,       0, 0, 0, 0, 0, 1, 1, 0, 1, 1, 0, 1, 0, 1, 0, 1
    32,     31, 1, 0.000625, 0.003429,        0,    15.7,       0,       0, 0, 0, 0, 0, 1, 1, 0, 1, 1, 0, 1, 0, 1, 0, 1
    31,     85, 1, 0.005303, 0.050926,  0.01644,  320.29,       0,       0, 0, 0, 0, 0, 1, 1, 0, 1, 1, 0, 1, 0, 1, 0, 1
   104,     31, 1, 0.005526, 0.053062,  0.01713,  320.29,       0,       0, 0, 0, 0, 0, 1, 1, 0, 1, 1, 0, 1, 0, 1, 0, 1
    31,    189, 1, 0.005707,   0.0548,  0.01769,  320.29,       0,       0, 0, 0, 0, 0, 1, 1, 0, 1, 1, 0, 1, 0, 1, 0, 1
    31,    205, 1, 0.007797, 0.074869,  0.02417,  320.29,       0,       0, 0, 0, 0, 0, 1, 1, 0, 1, 1, 0, 1, 0, 1, 0, 1
    31,    218, 1, 0.008273, 0.079446,  0.02565,  320.29,       0,       0, 0, 0, 0, 0, 1, 1, 0, 1, 1, 0, 1, 0, 1, 0, 1
   267,     31, 1, 0.004897, 0.047021,  0.01518,  320.29,       0,       0, 0, 0, 0, 0, 1, 1, 0, 1, 1, 0, 1, 0, 1, 0, 1
    34,     33, 1, 0.000624, 0.003284,        0,   43.35,       0,       0, 0, 0, 0, 0, 1, 1, 0, 1, 1, 0, 1, 0, 1, 0, 1
    83,     33, 1, 0.005287, 0.050764,  0.01639,  320.29,       0,       0, 0, 0, 0, 0, 1, 1, 0, 1, 1, 0, 1, 0, 1, 0, 1
   112,     33, 1, 0.007061, 0.067808,  0.02189,  320.29,       0,       0, 0, 0, 0, 0, 1, 1, 0, 1, 1, 0, 1, 0, 1, 0, 1
    36,     35, 1, 0.000583,  0.00303,        0,   62.87,       0,       0, 0, 0, 0, 0, 1, 1, 0, 1, 1, 0, 1, 0, 1, 0, 1
   191,     35, 1, 0.004038, 0.037042,  0.01313,  320.29,       0,       0, 0, 0, 0, 0, 1, 1, 0, 1, 1, 0, 1, 0, 1, 0, 1
    35,    399, 1, 0.005636, 0.054123,  0.01747,  320.29,       0,       0, 0, 0, 0, 0, 1, 1, 0, 1, 1, 0, 1, 0, 1, 0, 1
    38,     37, 1, 0.000546, 0.003823,        0,    0.18,       0,       0, 0, 0, 0, 0, 1, 1, 0, 1, 1, 0, 1, 0, 1, 0, 1
    76,     37, 1, 0.001474, 0.014156,  0.00457,  320.29,       0,       0, 0, 0, 0, 0, 1, 1, 0, 1, 1, 0, 1, 0, 1, 0, 1
    37,    176, 1, 0.003039,  0.02918,  0.00942,  320.29,       0,       0, 0, 0, 0, 0, 1, 1, 0, 1, 1, 0, 1, 0, 1, 0, 1
    39,    332, 1, 0.000403, 0.005786,  0.10355, 1493.89,       0,       0, 0, 0, 0, 0, 1, 1, 0, 1, 1, 0, 1, 0, 1, 0, 1
    39,    428, 1, 0.000521, 0.006898,  0.14538, 1493.89,       0,       0, 0, 0, 0, 0, 1, 1, 0, 1, 1, 0, 1, 0, 1, 0, 1
    41,     40, 1, 0.000631, 0.003923,        0,   97.47,       0,       0, 0, 0, 0, 0, 1, 1, 0, 1, 1, 0, 1, 0, 1, 0, 1
    40,    131, 1, 0.002909, 0.026681,  0.00946,  320.29,       0,       0, 0, 0, 0, 0, 1, 1, 0, 1, 1, 0, 1, 0, 1, 0, 1
    43,     42, 1, 0.000542, 0.003119,        0,     7.7,       0,       0, 0, 0, 0, 0, 1, 1, 0, 1, 1, 0, 1, 0, 1, 0, 1
    81,     42, 1, 0.002361,  0.02166,  0.00768,  320.29,       0,       0, 0, 0, 0, 0, 1, 1, 0, 1, 1, 0, 1, 0, 1, 0, 1
    42,    191, 1, 0.006368,  0.05842,   0.0207,  320.29,       0,       0, 0, 0, 0, 0, 1, 1, 0, 1, 1, 0, 1, 0, 1, 0, 1
    45,     44, 1, 0.000637, 0.003876,        0,    2.84,       0,       0, 0, 0, 0, 0, 1, 1, 0, 1, 1, 0, 1, 0, 1, 0, 1
    44,    200, 1, 0.002105, 0.019311,  0.00684,  320.29,       0,       0, 0, 0, 0, 0, 1, 1, 0, 1, 1, 0, 1, 0, 1, 0, 1
    47,     46, 1, 0.000602, 0.003454,        0,      63,       0,       0, 0, 0, 0, 0, 1, 1, 0, 1, 1, 0, 1, 0, 1, 0, 1
    46,    156, 1, 0.006611, 0.063482,  0.02049,  320.29,       0,       0, 0, 0, 0, 0, 1, 1, 0, 1, 1, 0, 1, 0, 1, 0, 1
   238,     46, 1, 0.003134, 0.030093,  0.00971,  320.29,       0,       0, 0, 0, 0, 0, 1, 1, 0, 1, 1, 0, 1, 0, 1, 0, 1
    51,     48, 1, 0.000658, 0.003672,        0,    0.56,       0,       0, 0, 0, 0, 0, 1, 1, 0, 1, 1, 0, 1, 0, 1, 0, 1
    52,     48, 1,  0.00062, 0.003342,        0,   37.95,       0,       0, 0, 0, 0, 0, 1, 1, 0, 1, 1, 0, 1, 0, 1, 0, 1
   358,     48, 1,   0.0045, 0.041283,  0.01463,  320.29,       0,       0, 0, 0, 0, 0, 1, 1, 0, 1, 1, 0, 1, 0, 1, 0, 1
   419,     48, 1, 0.004637, 0.044525,  0.01437,  320.29,       0,       0, 0, 0, 0, 0, 1, 1, 0, 1, 1, 0, 1, 0, 1, 0, 1
    54,     53, 1,  0.00068, 0.003061,        0,   51.27,       0,       0, 0, 0, 0, 0, 1, 1, 0, 1, 1, 0, 1, 0, 1, 0, 1
   233,     53, 1, 0.002362, 0.021667,  0.00768,  320.29,       0,       0, 0, 0, 0, 0, 1, 1, 0, 1, 1, 0, 1, 0, 1, 0, 1
    53,    276, 1, 0.001502, 0.014424,  0.00466,  320.29,       0,       0, 0, 0, 0, 0, 1, 1, 0, 1, 1, 0, 1, 0, 1, 0, 1
    56,     55, 1, 0.000641,  0.00331,        0,    3.15,       0,       0, 0, 0, 0, 0, 1, 1, 0, 1, 1, 0, 1, 0, 1, 0, 1
    55,     66, 1,  0.00433, 0.041575,  0.01342,  320.29,       0,       0, 0, 0, 0, 0, 1, 1, 0, 1, 1, 0, 1, 0, 1, 0, 1
    55,    500, 1, 0.004481, 0.041102,  0.01457,  320.29,       0,       0, 0, 0, 0, 0, 1, 1, 0, 1, 1, 0, 1, 0, 1, 0, 1
    57,    123, 1, 0.001682, 0.024427,  0.42627, 1493.89,       0,       0, 0, 0, 0, 0, 1, 1, 0, 1, 1, 0, 1, 0, 1, 0, 1
   440,     57, 1, 0.000601, 0.008726,  0.15227, 1493.89,       0,       0, 0, 0, 0, 0, 1, 1, 0, 1, 1, 0, 1, 0, 1, 0, 1
    59,     58, 1,  0.00062, 0.003848,        0,  252.93,       0,       0, 0, 0, 0, 0, 1, 1, 0, 1, 1, 0, 1, 0, 1, 0, 1
    58,    253, 1, 0.004532,  0.04352,  0.01405,  320.29,       0,       0, 0, 0, 0, 0, 1, 1, 0, 1, 1, 0, 1, 0, 1, 0, 1
   322,     58, 1, 0.002019, 0.019385,  0.00626,  320.29,       0,       0, 0, 0, 0, 0, 1, 1, 0, 1, 1, 0, 1, 0, 1, 0, 1
   322,     58, 2,  0.00202,  0.01939,  0.00626,   320.3,       0,       0, 0, 0, 0, 0, 1, 1, 0, 1, 1, 0, 1, 0, 1, 0, 1
    61,     60, 1, 0.000529, 0.003518,        0,    0.32,       0,       0, 0, 0, 0, 0, 1, 1, 0, 1, 1, 0, 1, 0, 1, 0, 1
    60,    131, 1, 0.001985, 0.018208,  0.00645,  320.29,       0,       0, 0, 0, 0, 0, 1, 1, 0, 1, 1, 0, 1, 0, 1, 0, 1
   466,     60, 1, 0.002011, 0.019314,  0.00623,  320.29,       0,       0, 0, 0, 0, 0, 1, 1, 0, 1, 1, 0, 1, 0, 1, 0, 1
...